/*--------------------------------*- C++ -*----------------------------------*\
| =========                 |                                                 |
| \\      /  F ield         | OpenFOAM: The Open Source CFD Toolbox           |
|  \\    /   O peration     | Version:  v2012                                 |
|   \\  /    A nd           | Website:  www.openfoam.com                      |
|    \\/     M anipulation  |                                                 |
\*---------------------------------------------------------------------------*/
FoamFile
{
    version     2.0;
    format      ascii;
    class       featureEdgeMesh;
    location    "constant/triSurface";
    object      model_m.eMesh;
}
// * * * * * * * * * * * * * * * * * * * * * * * * * * * * * * * * * * * * * //


// points:

1374
(
(-0.0267924 -0.0297013 0)
(-0.0275971 -0.0289551 0)
(-0.0259675 -0.0304251 0)
(-0.025123 -0.0311261 0)
(-0.0283811 -0.0281871 0)
(-0.0306026 -0.0257582 0)
(-0.0312977 -0.0249089 0)
(-0.0298844 -0.026588 0)
(-0.0291437 -0.0273979 0)
(-0.0242597 -0.0318036 0)
(-0.023378 -0.0324572 0)
(-0.0224788 -0.0330863 0)
(-0.0326168 -0.0231548 0)
(-0.0332397 -0.0222513 0)
(-0.0319693 -0.0240409 0)
(-0.0206303 -0.0342694 0)
(-0.0215626 -0.0336905 0)
(-0.0196823 -0.0348225 0)
(-0.0187196 -0.0353493 0)
(-0.0349567 -0.019443 0)
(-0.0354769 -0.0184767 0)
(-0.0344101 -0.0203947 0)
(-0.0338377 -0.021331 0)
(-0.0177428 -0.0358496 0)
(-0.0167526 -0.0363229 0)
(-0.0368759 -0.0154973 0)
(-0.0372872 -0.0144798 0)
(-0.0364369 -0.0165031 0)
(-0.0359705 -0.0174965 0)
(-0.0157498 -0.0367688 0)
(-0.0147352 -0.037187 0)
(-0.0137094 -0.0375773 0)
(-0.0376704 -0.0134514 0)
(-0.0380253 -0.0124129 0)
(-0.0126734 -0.0379392 0)
(-0.0116278 -0.0382726 0)
(-0.0383515 -0.011365 0)
(-0.0105734 -0.0385772 0)
(-0.00951114 -0.0388528 0)
(-0.00844167 -0.0390991 0)
(-0.00736585 -0.039316 0)
(-0.0391561 -0.00817328 0)
(-0.0393656 -0.00709599 0)
(-0.0389171 -0.00924441 0)
(-0.0386488 -0.0103086 0)
(-0.00628448 -0.0395032 0)
(-0.0395454 -0.00601336 0)
(-0.00410837 -0.0397885 0)
(-0.00519838 -0.0396608 0)
(-0.00301526 -0.0398862 0)
(-0.0398157 -0.00383535 0)
(-0.0399059 -0.0027416 0)
(-0.0396955 -0.00492621 0)
(-0.00191989 -0.0399539 0)
(-0.0399661 -0.00164578 0)
(-0.0399962 -0.000548733 0)
(-0.000823067 -0.0399915 0)
(0.000274373 -0.0399991 0)
(-0.0399962 0.000548733 0)
(-0.0399661 0.00164578 0)
(0.00137161 -0.0399765 0)
(0.00246781 -0.0399238 0)
(0.00356215 -0.0398411 0)
(-0.0398157 0.00383535 0)
(-0.0396955 0.00492621 0)
(-0.0399059 0.0027416 0)
(0.00465381 -0.0397284 0)
(0.00574197 -0.0395857 0)
(0.0068258 -0.0394133 0)
(-0.0395454 0.00601336 0)
(-0.0393656 0.00709599 0)
(0.0079045 -0.0392112 0)
(-0.0391561 0.00817328 0)
(-0.0389171 0.00924441 0)
(0.00897725 -0.0389796 0)
(0.0100432 -0.0387186 0)
(0.0111017 -0.0384285 0)
(-0.0386488 0.0103086 0)
(-0.0383515 0.011365 0)
(0.0121517 -0.0381095 0)
(-0.0380253 0.0124129 0)
(-0.0376704 0.0134514 0)
(-0.0372872 0.0144798 0)
(0.0131927 -0.0377618 0)
(0.0142237 -0.0373857 0)
(0.0152439 -0.0369814 0)
(-0.0368759 0.0154973 0)
(-0.0364369 0.0165031 0)
(0.0162528 -0.0365493 0)
(0.0172493 -0.0360896 0)
(0.0182329 -0.0356028 0)
(-0.0354769 0.0184767 0)
(-0.0349567 0.019443 0)
(-0.0359705 0.0174965 0)
(0.0192028 -0.0350892 0)
(0.0201582 -0.0345492 0)
(-0.0344101 0.0203947 0)
(-0.0338377 0.021331 0)
(0.0210984 -0.0339832 0)
(0.0220228 -0.0333916 0)
(-0.0332397 0.0222513 0)
(-0.0326168 0.0231548 0)
(0.0229306 -0.0327748 0)
(0.0238211 -0.0321334 0)
(-0.0319693 0.0240409 0)
(-0.0312977 0.0249089 0)
(0.0246937 -0.0314678 0)
(0.0255477 -0.0307785 0)
(-0.0306026 0.0257582 0)
(-0.0298844 0.026588 0)
(0.0263824 -0.0300661 0)
(0.0271973 -0.029331 0)
(0.0279918 -0.0285738 0)
(-0.0283811 0.0281871 0)
(-0.0275971 0.0289551 0)
(-0.0291437 0.0273979 0)
(0.0295168 -0.0269955 0)
(0.0287651 -0.0277951 0)
(0.0302463 -0.0261756 0)
(0.030953 -0.0253359 0)
(-0.025123 0.0311261 0)
(-0.0242597 0.0318036 0)
(-0.0259675 0.0304251 0)
(-0.0267924 0.0297013 0)
(0.0316364 -0.0244772 0)
(0.032296 -0.0236001 0)
(-0.023378 0.0324572 0)
(0.0329313 -0.0227052 0)
(0.0335418 -0.0217932 0)
(-0.0224788 0.0330863 0)
(-0.0215626 0.0336905 0)
(0.0341271 -0.0208648 0)
(-0.0196823 0.0348225 0)
(-0.0187196 0.0353493 0)
(-0.0206303 0.0342694 0)
(0.0346867 -0.0199207 0)
(0.0352201 -0.0189616 0)
(0.035727 -0.0179883 0)
(-0.0177428 0.0358496 0)
(-0.0167526 0.0363229 0)
(-0.0157498 0.0367688 0)
(0.0362071 -0.0170014 0)
(0.0366599 -0.0160017 0)
(0.0370851 -0.0149899 0)
(0.0385038 -0.0108378 0)
(0.038192 -0.01189 0)
(0.0387866 -0.00977742 0)
(-0.0105734 0.0385772 0)
(-0.00951114 0.0388528 0)
(-0.0116278 0.0382726 0)
(-0.0126734 0.0379392 0)
(-0.0137094 0.0375773 0)
(-0.0147352 0.037187 0)
(0.0390403 -0.00870966 0)
(0.0392645 -0.00763535 0)
(-0.00844167 0.0390991 0)
(-0.00736585 0.039316 0)
(0.0374823 -0.0139669 0)
(0.0378514 -0.0129333 0)
(0.0394592 -0.00655529 0)
(-0.00628448 0.0395032 0)
(-0.00519838 0.0396608 0)
(0.0396242 -0.0054703 0)
(0.0397593 -0.00438119 0)
(-0.00410837 0.0397885 0)
(-0.00301526 0.0398862 0)
(0.0398646 -0.00328878 0)
(0.0399398 -0.0021939 0)
(0.0399849 -0.00109736 0)
(-0.00191989 0.0399539 0)
(-0.000823067 0.0399915 0)
(0.0399849 0.00109736 0)
(0.04 0 0)
(0.00137161 0.0399765 0)
(0.00246781 0.0399238 0)
(0.000274373 0.0399991 0)
(0.0399398 0.0021939 0)
(0.0398646 0.00328878 0)
(0.0397593 0.00438119 0)
(0.00465381 0.0397284 0)
(0.00574197 0.0395857 0)
(0.00356215 0.0398411 0)
(0.0068258 0.0394133 0)
(0.0079045 0.0392112 0)
(0.0396242 0.0054703 0)
(0.0394592 0.00655529 0)
(0.0392645 0.00763535 0)
(0.0390403 0.00870966 0)
(0.00897725 0.0389796 0)
(0.0387866 0.00977742 0)
(0.0385038 0.0108378 0)
(0.038192 0.01189 0)
(0.0121517 0.0381095 0)
(0.0131927 0.0377618 0)
(0.0111017 0.0384285 0)
(0.0142237 0.0373857 0)
(0.0374823 0.0139669 0)
(0.0378514 0.0129333 0)
(0.0370851 0.0149899 0)
(0.0366599 0.0160017 0)
(0.0152439 0.0369814 0)
(0.0162528 0.0365493 0)
(0.0362071 0.0170014 0)
(0.035727 0.0179883 0)
(0.0352201 0.0189616 0)
(0.0182329 0.0356028 0)
(0.0192028 0.0350892 0)
(0.0172493 0.0360896 0)
(0.0346867 0.0199207 0)
(0.0100432 0.0387186 0)
(0.0201582 0.0345492 0)
(0.0210984 0.0339832 0)
(0.0220228 0.0333916 0)
(0.0229306 0.0327748 0)
(0.0238211 0.0321334 0)
(0.0341271 0.0208648 0)
(0.0335418 0.0217932 0)
(0.0329313 0.0227052 0)
(0.032296 0.0236001 0)
(0.0316364 0.0244772 0)
(0.0246937 0.0314678 0)
(0.0255477 0.0307785 0)
(0.0263824 0.0300661 0)
(0.0302463 0.0261756 0)
(0.030953 0.0253359 0)
(0.0295168 0.0269955 0)
(0.0271973 0.029331 0)
(0.0287651 0.0277951 0)
(0.0279918 0.0285738 0)
(-0.0275971 -0.0289551 0.3)
(-0.0267924 -0.0297013 0.3)
(-0.0259675 -0.0304251 0.3)
(-0.025123 -0.0311261 0.3)
(-0.0283811 -0.0281871 0.3)
(-0.0312977 -0.0249089 0.3)
(-0.0306026 -0.0257582 0.3)
(-0.0298844 -0.026588 0.3)
(-0.0291437 -0.0273979 0.3)
(-0.0242597 -0.0318036 0.3)
(-0.023378 -0.0324572 0.3)
(-0.0224788 -0.0330863 0.3)
(-0.0332397 -0.0222513 0.3)
(-0.0326168 -0.0231548 0.3)
(-0.0319693 -0.0240409 0.3)
(-0.0215626 -0.0336905 0.3)
(-0.0206303 -0.0342694 0.3)
(-0.0196823 -0.0348225 0.3)
(-0.0187196 -0.0353493 0.3)
(-0.0354769 -0.0184767 0.3)
(-0.0349567 -0.019443 0.3)
(-0.0344101 -0.0203947 0.3)
(-0.0338377 -0.021331 0.3)
(-0.0177428 -0.0358496 0.3)
(-0.0167526 -0.0363229 0.3)
(-0.0372872 -0.0144798 0.3)
(-0.0368759 -0.0154973 0.3)
(-0.0364369 -0.0165031 0.3)
(-0.0359705 -0.0174965 0.3)
(-0.0157498 -0.0367688 0.3)
(-0.0147352 -0.037187 0.3)
(-0.0137094 -0.0375773 0.3)
(-0.0380253 -0.0124129 0.3)
(-0.0376704 -0.0134514 0.3)
(-0.0126734 -0.0379392 0.3)
(-0.0116278 -0.0382726 0.3)
(-0.0383515 -0.011365 0.3)
(-0.0105734 -0.0385772 0.3)
(-0.00951114 -0.0388528 0.3)
(-0.00844167 -0.0390991 0.3)
(-0.00736585 -0.039316 0.3)
(-0.0393656 -0.00709599 0.3)
(-0.0391561 -0.00817328 0.3)
(-0.0389171 -0.00924441 0.3)
(-0.0386488 -0.0103086 0.3)
(-0.00628448 -0.0395032 0.3)
(-0.0395454 -0.00601336 0.3)
(-0.00519838 -0.0396608 0.3)
(-0.00410837 -0.0397885 0.3)
(-0.00301526 -0.0398862 0.3)
(-0.0399059 -0.0027416 0.3)
(-0.0398157 -0.00383535 0.3)
(-0.0396955 -0.00492621 0.3)
(-0.00191989 -0.0399539 0.3)
(-0.0399661 -0.00164578 0.3)
(-0.0399962 -0.000548733 0.3)
(-0.000823067 -0.0399915 0.3)
(0.000274373 -0.0399991 0.3)
(-0.0399661 0.00164578 0.3)
(-0.0399962 0.000548733 0.3)
(0.00137161 -0.0399765 0.3)
(0.00246781 -0.0399238 0.3)
(0.00356215 -0.0398411 0.3)
(-0.0396955 0.00492621 0.3)
(-0.0398157 0.00383535 0.3)
(-0.0399059 0.0027416 0.3)
(0.00465381 -0.0397284 0.3)
(0.00574197 -0.0395857 0.3)
(0.0068258 -0.0394133 0.3)
(-0.0393656 0.00709599 0.3)
(-0.0395454 0.00601336 0.3)
(0.0079045 -0.0392112 0.3)
(-0.0389171 0.00924441 0.3)
(-0.0391561 0.00817328 0.3)
(0.00897725 -0.0389796 0.3)
(0.0100432 -0.0387186 0.3)
(0.0111017 -0.0384285 0.3)
(-0.0383515 0.011365 0.3)
(-0.0386488 0.0103086 0.3)
(0.0121517 -0.0381095 0.3)
(-0.0376704 0.0134514 0.3)
(-0.0380253 0.0124129 0.3)
(-0.0372872 0.0144798 0.3)
(0.0131927 -0.0377618 0.3)
(0.0142237 -0.0373857 0.3)
(0.0152439 -0.0369814 0.3)
(-0.0364369 0.0165031 0.3)
(-0.0368759 0.0154973 0.3)
(0.0162528 -0.0365493 0.3)
(0.0172493 -0.0360896 0.3)
(0.0182329 -0.0356028 0.3)
(-0.0349567 0.019443 0.3)
(-0.0354769 0.0184767 0.3)
(-0.0359705 0.0174965 0.3)
(0.0192028 -0.0350892 0.3)
(0.0201582 -0.0345492 0.3)
(-0.0338377 0.021331 0.3)
(-0.0344101 0.0203947 0.3)
(0.0210984 -0.0339832 0.3)
(0.0220228 -0.0333916 0.3)
(-0.0332397 0.0222513 0.3)
(-0.0326168 0.0231548 0.3)
(0.0229306 -0.0327748 0.3)
(0.0238211 -0.0321334 0.3)
(-0.0312977 0.0249089 0.3)
(-0.0319693 0.0240409 0.3)
(0.0246937 -0.0314678 0.3)
(0.0255477 -0.0307785 0.3)
(-0.0298844 0.026588 0.3)
(-0.0306026 0.0257582 0.3)
(0.0263824 -0.0300661 0.3)
(0.0271973 -0.029331 0.3)
(0.0279918 -0.0285738 0.3)
(-0.0275971 0.0289551 0.3)
(-0.0283811 0.0281871 0.3)
(-0.0291437 0.0273979 0.3)
(0.0287651 -0.0277951 0.3)
(0.0295168 -0.0269955 0.3)
(0.0302463 -0.0261756 0.3)
(0.030953 -0.0253359 0.3)
(-0.0242597 0.0318036 0.3)
(-0.025123 0.0311261 0.3)
(-0.0259675 0.0304251 0.3)
(-0.0267924 0.0297013 0.3)
(0.0316364 -0.0244772 0.3)
(0.032296 -0.0236001 0.3)
(-0.023378 0.0324572 0.3)
(0.0329313 -0.0227052 0.3)
(0.0335418 -0.0217932 0.3)
(-0.0215626 0.0336905 0.3)
(-0.0224788 0.0330863 0.3)
(0.0341271 -0.0208648 0.3)
(-0.0187196 0.0353493 0.3)
(-0.0196823 0.0348225 0.3)
(-0.0206303 0.0342694 0.3)
(0.0346867 -0.0199207 0.3)
(0.0352201 -0.0189616 0.3)
(0.035727 -0.0179883 0.3)
(-0.0177428 0.0358496 0.3)
(-0.0167526 0.0363229 0.3)
(-0.0157498 0.0367688 0.3)
(0.0362071 -0.0170014 0.3)
(0.0366599 -0.0160017 0.3)
(0.0370851 -0.0149899 0.3)
(0.038192 -0.01189 0.3)
(0.0385038 -0.0108378 0.3)
(0.0387866 -0.00977742 0.3)
(-0.00951114 0.0388528 0.3)
(-0.0105734 0.0385772 0.3)
(-0.0116278 0.0382726 0.3)
(-0.0126734 0.0379392 0.3)
(-0.0137094 0.0375773 0.3)
(-0.0147352 0.037187 0.3)
(0.0390403 -0.00870966 0.3)
(0.0392645 -0.00763535 0.3)
(-0.00736585 0.039316 0.3)
(-0.00844167 0.0390991 0.3)
(0.0374823 -0.0139669 0.3)
(0.0378514 -0.0129333 0.3)
(0.0394592 -0.00655529 0.3)
(-0.00519838 0.0396608 0.3)
(-0.00628448 0.0395032 0.3)
(0.0396242 -0.0054703 0.3)
(0.0397593 -0.00438119 0.3)
(-0.00301526 0.0398862 0.3)
(-0.00410837 0.0397885 0.3)
(0.0398646 -0.00328878 0.3)
(0.0399398 -0.0021939 0.3)
(0.0399849 -0.00109736 0.3)
(-0.000823067 0.0399915 0.3)
(-0.00191989 0.0399539 0.3)
(0.04 0 0.3)
(0.0399849 0.00109736 0.3)
(0.00246781 0.0399238 0.3)
(0.00137161 0.0399765 0.3)
(0.000274373 0.0399991 0.3)
(0.0399398 0.0021939 0.3)
(0.0398646 0.00328878 0.3)
(0.0397593 0.00438119 0.3)
(0.00574197 0.0395857 0.3)
(0.00465381 0.0397284 0.3)
(0.00356215 0.0398411 0.3)
(0.0079045 0.0392112 0.3)
(0.0068258 0.0394133 0.3)
(0.0396242 0.0054703 0.3)
(0.0394592 0.00655529 0.3)
(0.0392645 0.00763535 0.3)
(0.0390403 0.00870966 0.3)
(0.00897725 0.0389796 0.3)
(0.0387866 0.00977742 0.3)
(0.0385038 0.0108378 0.3)
(0.038192 0.01189 0.3)
(0.0131927 0.0377618 0.3)
(0.0121517 0.0381095 0.3)
(0.0111017 0.0384285 0.3)
(0.0142237 0.0373857 0.3)
(0.0378514 0.0129333 0.3)
(0.0374823 0.0139669 0.3)
(0.0370851 0.0149899 0.3)
(0.0366599 0.0160017 0.3)
(0.0162528 0.0365493 0.3)
(0.0152439 0.0369814 0.3)
(0.0362071 0.0170014 0.3)
(0.035727 0.0179883 0.3)
(0.0352201 0.0189616 0.3)
(0.0192028 0.0350892 0.3)
(0.0182329 0.0356028 0.3)
(0.0172493 0.0360896 0.3)
(0.0346867 0.0199207 0.3)
(0.0100432 0.0387186 0.3)
(0.0210984 0.0339832 0.3)
(0.0201582 0.0345492 0.3)
(0.0229306 0.0327748 0.3)
(0.0220228 0.0333916 0.3)
(0.0238211 0.0321334 0.3)
(0.0341271 0.0208648 0.3)
(0.0335418 0.0217932 0.3)
(0.0329313 0.0227052 0.3)
(0.032296 0.0236001 0.3)
(0.0316364 0.0244772 0.3)
(0.0246937 0.0314678 0.3)
(0.0255477 0.0307785 0.3)
(0.0263824 0.0300661 0.3)
(0.030953 0.0253359 0.3)
(0.0302463 0.0261756 0.3)
(0.0295168 0.0269955 0.3)
(0.0271973 0.029331 0.3)
(0.0287651 0.0277951 0.3)
(0.0279918 0.0285738 0.3)
(0.0399849 0.00109736 0.1)
(0.04 0 0.1)
(0.0399398 0.0021939 0.1)
(0.0398646 0.00328878 0.1)
(0.0397593 0.00438119 0.1)
(0.0396242 0.0054703 0.1)
(0.0394592 0.00655529 0.1)
(0.0392645 0.00763535 0.1)
(0.0390403 0.00870966 0.1)
(0.0387866 0.00977742 0.1)
(0.0385038 0.0108378 0.1)
(0.038192 0.01189 0.1)
(0.0378514 0.0129333 0.1)
(0.0374823 0.0139669 0.1)
(0.0370851 0.0149899 0.1)
(0.0366599 0.0160017 0.1)
(0.0362071 0.0170014 0.1)
(0.035727 0.0179883 0.1)
(0.0352201 0.0189616 0.1)
(0.0346867 0.0199207 0.1)
(0.0341271 0.0208648 0.1)
(0.0335418 0.0217932 0.1)
(0.0329313 0.0227052 0.1)
(0.032296 0.0236001 0.1)
(0.0316364 0.0244772 0.1)
(0.030953 0.0253359 0.1)
(0.0302463 0.0261756 0.1)
(0.0295168 0.0269955 0.1)
(0.0287651 0.0277951 0.1)
(0.0279918 0.0285738 0.1)
(0.0271973 0.029331 0.1)
(0.0263824 0.0300661 0.1)
(0.0255477 0.0307785 0.1)
(0.0246937 0.0314678 0.1)
(0.0238211 0.0321334 0.1)
(0.0229306 0.0327748 0.1)
(0.0220228 0.0333916 0.1)
(0.0210984 0.0339832 0.1)
(0.0201582 0.0345492 0.1)
(0.0192028 0.0350892 0.1)
(0.0182329 0.0356028 0.1)
(0.0172493 0.0360896 0.1)
(0.0162528 0.0365493 0.1)
(0.0152439 0.0369814 0.1)
(0.0142237 0.0373857 0.1)
(0.0131927 0.0377618 0.1)
(0.0121517 0.0381095 0.1)
(0.0111017 0.0384285 0.1)
(0.0100432 0.0387186 0.1)
(0.00897725 0.0389796 0.1)
(0.0079045 0.0392112 0.1)
(0.0068258 0.0394133 0.1)
(0.00574197 0.0395857 0.1)
(0.00465381 0.0397284 0.1)
(0.00356215 0.0398411 0.1)
(0.00246781 0.0399238 0.1)
(0.00137161 0.0399765 0.1)
(0.000274373 0.0399991 0.1)
(-0.000823067 0.0399915 0.1)
(-0.00191989 0.0399539 0.1)
(-0.00301526 0.0398862 0.1)
(-0.00410837 0.0397885 0.1)
(-0.00519838 0.0396608 0.1)
(-0.00628448 0.0395032 0.1)
(-0.00736585 0.039316 0.1)
(-0.00844167 0.0390991 0.1)
(-0.00951114 0.0388528 0.1)
(-0.0105734 0.0385772 0.1)
(-0.0116278 0.0382726 0.1)
(-0.0126734 0.0379392 0.1)
(-0.0137094 0.0375773 0.1)
(-0.0147352 0.037187 0.1)
(-0.0157498 0.0367688 0.1)
(-0.0167526 0.0363229 0.1)
(-0.0177428 0.0358496 0.1)
(-0.0187196 0.0353493 0.1)
(-0.0196823 0.0348225 0.1)
(-0.0206303 0.0342694 0.1)
(-0.0215626 0.0336905 0.1)
(-0.0224788 0.0330863 0.1)
(-0.023378 0.0324572 0.1)
(-0.0242597 0.0318036 0.1)
(-0.025123 0.0311261 0.1)
(-0.0259675 0.0304251 0.1)
(-0.0267924 0.0297013 0.1)
(-0.0275971 0.0289551 0.1)
(-0.0283811 0.0281871 0.1)
(-0.0291437 0.0273979 0.1)
(-0.0298844 0.026588 0.1)
(-0.0306026 0.0257582 0.1)
(-0.0312977 0.0249089 0.1)
(-0.0319693 0.0240409 0.1)
(-0.0326168 0.0231548 0.1)
(-0.0332397 0.0222513 0.1)
(-0.0338377 0.021331 0.1)
(-0.0344101 0.0203947 0.1)
(-0.0349567 0.019443 0.1)
(-0.0354769 0.0184767 0.1)
(-0.0359705 0.0174965 0.1)
(-0.0364369 0.0165031 0.1)
(-0.0368759 0.0154973 0.1)
(-0.0372872 0.0144798 0.1)
(-0.0376704 0.0134514 0.1)
(-0.0380253 0.0124129 0.1)
(-0.0383515 0.011365 0.1)
(-0.0386488 0.0103086 0.1)
(-0.0389171 0.00924441 0.1)
(-0.0391561 0.00817328 0.1)
(-0.0393656 0.00709599 0.1)
(-0.0395454 0.00601336 0.1)
(-0.0396955 0.00492621 0.1)
(-0.0398157 0.00383535 0.1)
(-0.0399059 0.0027416 0.1)
(-0.0399661 0.00164578 0.1)
(-0.0399962 0.000548733 0.1)
(-0.0399962 -0.000548733 0.1)
(-0.0399661 -0.00164578 0.1)
(-0.0399059 -0.0027416 0.1)
(-0.0398157 -0.00383535 0.1)
(-0.0396955 -0.00492621 0.1)
(-0.0395454 -0.00601336 0.1)
(-0.0393656 -0.00709599 0.1)
(-0.0391561 -0.00817328 0.1)
(-0.0389171 -0.00924441 0.1)
(-0.0386488 -0.0103086 0.1)
(-0.0383515 -0.011365 0.1)
(-0.0380253 -0.0124129 0.1)
(-0.0376704 -0.0134514 0.1)
(-0.0372872 -0.0144798 0.1)
(-0.0368759 -0.0154973 0.1)
(-0.0364369 -0.0165031 0.1)
(-0.0359705 -0.0174965 0.1)
(-0.0354769 -0.0184767 0.1)
(-0.0349567 -0.019443 0.1)
(-0.0344101 -0.0203947 0.1)
(-0.0338377 -0.021331 0.1)
(-0.0332397 -0.0222513 0.1)
(-0.0326168 -0.0231548 0.1)
(-0.0319693 -0.0240409 0.1)
(-0.0312977 -0.0249089 0.1)
(-0.0306026 -0.0257582 0.1)
(-0.0298844 -0.026588 0.1)
(-0.0291437 -0.0273979 0.1)
(-0.0283811 -0.0281871 0.1)
(-0.0275971 -0.0289551 0.1)
(-0.0267924 -0.0297013 0.1)
(-0.0259675 -0.0304251 0.1)
(-0.025123 -0.0311261 0.1)
(-0.0242597 -0.0318036 0.1)
(-0.023378 -0.0324572 0.1)
(-0.0224788 -0.0330863 0.1)
(-0.0215626 -0.0336905 0.1)
(-0.0206303 -0.0342694 0.1)
(-0.0196823 -0.0348225 0.1)
(-0.0187196 -0.0353493 0.1)
(-0.0177428 -0.0358496 0.1)
(-0.0167526 -0.0363229 0.1)
(-0.0157498 -0.0367688 0.1)
(-0.0147352 -0.037187 0.1)
(-0.0137094 -0.0375773 0.1)
(-0.0126734 -0.0379392 0.1)
(-0.0116278 -0.0382726 0.1)
(-0.0105734 -0.0385772 0.1)
(-0.00951114 -0.0388528 0.1)
(-0.00844167 -0.0390991 0.1)
(-0.00736585 -0.039316 0.1)
(-0.00628448 -0.0395032 0.1)
(-0.00519838 -0.0396608 0.1)
(-0.00410837 -0.0397885 0.1)
(-0.00301526 -0.0398862 0.1)
(-0.00191989 -0.0399539 0.1)
(-0.000823067 -0.0399915 0.1)
(0.000274373 -0.0399991 0.1)
(0.00137161 -0.0399765 0.1)
(0.00246781 -0.0399238 0.1)
(0.00356215 -0.0398411 0.1)
(0.00465381 -0.0397284 0.1)
(0.00574197 -0.0395857 0.1)
(0.0068258 -0.0394133 0.1)
(0.0079045 -0.0392112 0.1)
(0.00897725 -0.0389796 0.1)
(0.0100432 -0.0387186 0.1)
(0.0111017 -0.0384285 0.1)
(0.0121517 -0.0381095 0.1)
(0.0131927 -0.0377618 0.1)
(0.0142237 -0.0373857 0.1)
(0.0152439 -0.0369814 0.1)
(0.0162528 -0.0365493 0.1)
(0.0172493 -0.0360896 0.1)
(0.0182329 -0.0356028 0.1)
(0.0192028 -0.0350892 0.1)
(0.0201582 -0.0345492 0.1)
(0.0210984 -0.0339832 0.1)
(0.0220228 -0.0333916 0.1)
(0.0229306 -0.0327748 0.1)
(0.0238211 -0.0321334 0.1)
(0.0246937 -0.0314678 0.1)
(0.0255477 -0.0307785 0.1)
(0.0263824 -0.0300661 0.1)
(0.0271973 -0.029331 0.1)
(0.0279918 -0.0285738 0.1)
(0.0287651 -0.0277951 0.1)
(0.0295168 -0.0269955 0.1)
(0.0302463 -0.0261756 0.1)
(0.030953 -0.0253359 0.1)
(0.0316364 -0.0244772 0.1)
(0.032296 -0.0236001 0.1)
(0.0329313 -0.0227052 0.1)
(0.0335418 -0.0217932 0.1)
(0.0341271 -0.0208648 0.1)
(0.0346867 -0.0199207 0.1)
(0.0352201 -0.0189616 0.1)
(0.035727 -0.0179883 0.1)
(0.0362071 -0.0170014 0.1)
(0.0366599 -0.0160017 0.1)
(0.0370851 -0.0149899 0.1)
(0.0374823 -0.0139669 0.1)
(0.0378514 -0.0129333 0.1)
(0.038192 -0.01189 0.1)
(0.0385038 -0.0108378 0.1)
(0.0387866 -0.00977742 0.1)
(0.0390403 -0.00870966 0.1)
(0.0392645 -0.00763535 0.1)
(0.0394592 -0.00655529 0.1)
(0.0396242 -0.0054703 0.1)
(0.0397593 -0.00438119 0.1)
(0.0398646 -0.00328878 0.1)
(0.0399398 -0.0021939 0.1)
(0.0399849 -0.00109736 0.1)
(-0.00344964 -0.00361939 0.1)
(-0.00354764 -0.00352339 0.1)
(-0.00364296 -0.00342474 0.1)
(-0.00334905 -0.00371266 0.1)
(-0.00373555 -0.0033235 0.1)
(-0.00324594 -0.00380314 0.1)
(-0.00382532 -0.00321977 0.1)
(-0.00314038 -0.00389076 0.1)
(-0.00391221 -0.00311362 0.1)
(-0.00303246 -0.00397545 0.1)
(-0.00399616 -0.00300512 0.1)
(-0.00292225 -0.00405715 0.1)
(-0.0040771 -0.00289436 0.1)
(-0.00280985 -0.00413579 0.1)
(-0.00415496 -0.00278141 0.1)
(-0.00269533 -0.00421132 0.1)
(-0.00422971 -0.00266638 0.1)
(-0.00257878 -0.00428368 0.1)
(-0.00430126 -0.00254934 0.1)
(-0.00246029 -0.00435281 0.1)
(-0.00436958 -0.00243038 0.1)
(-0.00233995 -0.00441867 0.1)
(-0.00443461 -0.00230959 0.1)
(-0.00221785 -0.0044812 0.1)
(-0.00449631 -0.00218706 0.1)
(-0.00209408 -0.00454036 0.1)
(-0.00455461 -0.00206288 0.1)
(-0.00196873 -0.0045961 0.1)
(-0.00460949 -0.00193716 0.1)
(-0.0018419 -0.00464838 0.1)
(-0.0046609 -0.00180997 0.1)
(-0.00171368 -0.00469716 0.1)
(-0.0047088 -0.00168142 0.1)
(-0.00158417 -0.0047424 0.1)
(-0.00475316 -0.00155161 0.1)
(-0.00145347 -0.00478408 0.1)
(-0.00479394 -0.00142062 0.1)
(-0.00132168 -0.00482215 0.1)
(-0.00483111 -0.00128857 0.1)
(-0.00118889 -0.0048566 0.1)
(-0.00486464 -0.00115555 0.1)
(-0.00105521 -0.00488738 0.1)
(-0.00489451 -0.00102166 0.1)
(-0.000920731 -0.00491449 0.1)
(-0.00492069 -0.000886999 0.1)
(-0.00078556 -0.0049379 0.1)
(-0.00494318 -0.00075167 0.1)
(-0.000649797 -0.0049576 0.1)
(-0.00496194 -0.000615776 0.1)
(-0.000513546 -0.00497356 0.1)
(-0.00497696 -0.000479418 0.1)
(-0.000376908 -0.00498577 0.1)
(-0.00498824 -0.0003427 0.1)
(-0.000239986 -0.00499424 0.1)
(-0.00499577 -0.000205723 0.1)
(-0.000102883 -0.00499894 0.1)
(-0.00499953 -6.8592e-05 0.1)
(3.4297e-05 -0.00499988 0.1)
(-0.00499953 6.8592e-05 0.1)
(0.000171451 -0.00499706 0.1)
(-0.00499577 0.000205723 0.1)
(0.000308476 -0.00499048 0.1)
(-0.00498824 0.0003427 0.1)
(0.000445269 -0.00498013 0.1)
(-0.00497696 0.000479418 0.1)
(0.000581726 -0.00496604 0.1)
(-0.00496194 0.000615776 0.1)
(0.000717746 -0.00494822 0.1)
(-0.00494318 0.00075167 0.1)
(0.000853225 -0.00492666 0.1)
(-0.00492069 0.000886999 0.1)
(0.000988063 -0.0049014 0.1)
(-0.00489451 0.00102166 0.1)
(0.00112216 -0.00487245 0.1)
(-0.00486464 0.00115555 0.1)
(0.0012554 -0.00483983 0.1)
(-0.00483111 0.00128857 0.1)
(0.00138771 -0.00480357 0.1)
(-0.00479394 0.00142062 0.1)
(0.00151897 -0.00476369 0.1)
(-0.00475316 0.00155161 0.1)
(0.00164908 -0.00472022 0.1)
(-0.0047088 0.00168142 0.1)
(0.00177796 -0.00467321 0.1)
(-0.0046609 0.00180997 0.1)
(0.00190549 -0.00462267 0.1)
(-0.00460949 0.00193716 0.1)
(0.00203159 -0.00456866 0.1)
(-0.00455461 0.00206288 0.1)
(0.00215617 -0.0045112 0.1)
(-0.00449631 0.00218706 0.1)
(0.00227911 -0.00445035 0.1)
(-0.00443461 0.00230959 0.1)
(0.00240035 -0.00438615 0.1)
(-0.00436958 0.00243038 0.1)
(0.00251977 -0.00431865 0.1)
(-0.00430126 0.00254934 0.1)
(0.00263731 -0.0042479 0.1)
(-0.00422971 0.00266638 0.1)
(0.00275285 -0.00417394 0.1)
(-0.00415496 0.00278141 0.1)
(0.00286632 -0.00409685 0.1)
(-0.0040771 0.00289436 0.1)
(0.00297764 -0.00401668 0.1)
(-0.00399616 0.00300512 0.1)
(0.00308671 -0.00393348 0.1)
(-0.00391221 0.00311362 0.1)
(0.00319346 -0.00384731 0.1)
(-0.00382532 0.00321977 0.1)
(0.0032978 -0.00375826 0.1)
(-0.00373555 0.0033235 0.1)
(0.00339967 -0.00366637 0.1)
(-0.00364296 0.00342474 0.1)
(0.00349897 -0.00357172 0.1)
(-0.00354764 0.00352339 0.1)
(0.00359564 -0.00347439 0.1)
(0.0036896 -0.00337444 0.1)
(-0.00344964 0.00361939 0.1)
(0.00378079 -0.00327195 0.1)
(-0.00334905 0.00371266 0.1)
(-0.00324594 0.00380314 0.1)
(-0.00314038 0.00389076 0.1)
(0.00386913 -0.00316699 0.1)
(0.00395456 -0.00305965 0.1)
(-0.00303246 0.00397545 0.1)
(-0.00292225 0.00405715 0.1)
(0.00403701 -0.00295001 0.1)
(0.00411642 -0.00283815 0.1)
(-0.00280985 0.00413579 0.1)
(-0.00269533 0.00421132 0.1)
(0.00419273 -0.00272415 0.1)
(0.00426589 -0.0026081 0.1)
(0.00433583 -0.00249009 0.1)
(-0.00257878 0.00428368 0.1)
(0.00440251 -0.00237021 0.1)
(-0.00246029 0.00435281 0.1)
(-0.00233995 0.00441867 0.1)
(0.00446588 -0.00224853 0.1)
(0.00452589 -0.00212517 0.1)
(-0.00221785 0.0044812 0.1)
(-0.00209408 0.00454036 0.1)
(0.00458249 -0.00200021 0.1)
(-0.00196873 0.0045961 0.1)
(0.00463563 -0.00187374 0.1)
(-0.0018419 0.00464838 0.1)
(-0.00171368 0.00469716 0.1)
(0.00468529 -0.00174586 0.1)
(0.00473143 -0.00161667 0.1)
(-0.00158417 0.0047424 0.1)
(-0.00145347 0.00478408 0.1)
(0.004774 -0.00148626 0.1)
(0.00481297 -0.00135473 0.1)
(-0.00132168 0.00482215 0.1)
(-0.00118889 0.0048566 0.1)
(0.00484833 -0.00122218 0.1)
(0.00488003 -0.00108871 0.1)
(0.00490806 -0.000954419 0.1)
(-0.00105521 0.00488738 0.1)
(0.0049324 -0.000819412 0.1)
(-0.000920731 0.00491449 0.1)
(-0.00078556 0.0049379 0.1)
(0.00495302 -0.000683788 0.1)
(0.00496992 -0.000547649 0.1)
(-0.000649797 0.0049576 0.1)
(-0.000513546 0.00497356 0.1)
(0.00498307 -0.000411098 0.1)
(-0.000376908 0.00498577 0.1)
(0.00499247 -0.000274237 0.1)
(-0.000239986 0.00499424 0.1)
(0.00499812 -0.00013717 0.1)
(-0.000102883 0.00499894 0.1)
(3.4297e-05 0.00499988 0.1)
(0.005 0 0.1)
(0.00499812 0.00013717 0.1)
(0.000171451 0.00499706 0.1)
(0.00499247 0.000274237 0.1)
(0.000308476 0.00499048 0.1)
(0.00498307 0.000411098 0.1)
(0.000445269 0.00498013 0.1)
(0.000581726 0.00496604 0.1)
(0.00496992 0.000547649 0.1)
(0.00495302 0.000683788 0.1)
(0.000717746 0.00494822 0.1)
(0.000853225 0.00492666 0.1)
(0.0049324 0.000819412 0.1)
(0.000988063 0.0049014 0.1)
(0.00490806 0.000954419 0.1)
(0.00112216 0.00487245 0.1)
(0.00488003 0.00108871 0.1)
(0.0012554 0.00483983 0.1)
(0.00484833 0.00122218 0.1)
(0.00138771 0.00480357 0.1)
(0.00481297 0.00135473 0.1)
(0.004774 0.00148626 0.1)
(0.00151897 0.00476369 0.1)
(0.00473143 0.00161667 0.1)
(0.00164908 0.00472022 0.1)
(0.00177796 0.00467321 0.1)
(0.00468529 0.00174586 0.1)
(0.00463563 0.00187374 0.1)
(0.00190549 0.00462267 0.1)
(0.00458249 0.00200021 0.1)
(0.00203159 0.00456866 0.1)
(0.00215617 0.0045112 0.1)
(0.00452589 0.00212517 0.1)
(0.00227911 0.00445035 0.1)
(0.00446588 0.00224853 0.1)
(0.00440251 0.00237021 0.1)
(0.00240035 0.00438615 0.1)
(0.00433583 0.00249009 0.1)
(0.00251977 0.00431865 0.1)
(0.00426589 0.0026081 0.1)
(0.00419273 0.00272415 0.1)
(0.00263731 0.0042479 0.1)
(0.00275285 0.00417394 0.1)
(0.00286632 0.00409685 0.1)
(0.00411642 0.00283815 0.1)
(0.00403701 0.00295001 0.1)
(0.00297764 0.00401668 0.1)
(0.00308671 0.00393348 0.1)
(0.00395456 0.00305965 0.1)
(0.00319346 0.00384731 0.1)
(0.00386913 0.00316699 0.1)
(0.00378079 0.00327195 0.1)
(0.0032978 0.00375826 0.1)
(0.0036896 0.00337444 0.1)
(0.00339967 0.00366637 0.1)
(0.00349897 0.00357172 0.1)
(0.00359564 0.00347439 0.1)
(0.04 0 0.2)
(0.0399849 0.00109736 0.2)
(0.0399398 0.0021939 0.2)
(0.0398646 0.00328878 0.2)
(0.0397593 0.00438119 0.2)
(0.0396242 0.0054703 0.2)
(0.0394592 0.00655529 0.2)
(0.0392645 0.00763535 0.2)
(0.0390403 0.00870966 0.2)
(0.0387866 0.00977742 0.2)
(0.0385038 0.0108378 0.2)
(0.038192 0.01189 0.2)
(0.0378514 0.0129333 0.2)
(0.0374823 0.0139669 0.2)
(0.0370851 0.0149899 0.2)
(0.0366599 0.0160017 0.2)
(0.0362071 0.0170014 0.2)
(0.035727 0.0179883 0.2)
(0.0352201 0.0189616 0.2)
(0.0346867 0.0199207 0.2)
(0.0341271 0.0208648 0.2)
(0.0335418 0.0217932 0.2)
(0.0329313 0.0227052 0.2)
(0.032296 0.0236001 0.2)
(0.0316364 0.0244772 0.2)
(0.030953 0.0253359 0.2)
(0.0302463 0.0261756 0.2)
(0.0295168 0.0269955 0.2)
(0.0287651 0.0277951 0.2)
(0.0279918 0.0285738 0.2)
(0.0271973 0.029331 0.2)
(0.0263824 0.0300661 0.2)
(0.0255477 0.0307785 0.2)
(0.0246937 0.0314678 0.2)
(0.0238211 0.0321334 0.2)
(0.0229306 0.0327748 0.2)
(0.0220228 0.0333916 0.2)
(0.0210984 0.0339832 0.2)
(0.0201582 0.0345492 0.2)
(0.0192028 0.0350892 0.2)
(0.0182329 0.0356028 0.2)
(0.0172493 0.0360896 0.2)
(0.0162528 0.0365493 0.2)
(0.0152439 0.0369814 0.2)
(0.0142237 0.0373857 0.2)
(0.0131927 0.0377618 0.2)
(0.0121517 0.0381095 0.2)
(0.0111017 0.0384285 0.2)
(0.0100432 0.0387186 0.2)
(0.00897725 0.0389796 0.2)
(0.0079045 0.0392112 0.2)
(0.0068258 0.0394133 0.2)
(0.00574197 0.0395857 0.2)
(0.00465381 0.0397284 0.2)
(0.00356215 0.0398411 0.2)
(0.00246781 0.0399238 0.2)
(0.00137161 0.0399765 0.2)
(0.000274373 0.0399991 0.2)
(-0.000823067 0.0399915 0.2)
(-0.00191989 0.0399539 0.2)
(-0.00301526 0.0398862 0.2)
(-0.00410837 0.0397885 0.2)
(-0.00519838 0.0396608 0.2)
(-0.00628448 0.0395032 0.2)
(-0.00736585 0.039316 0.2)
(-0.00844167 0.0390991 0.2)
(-0.00951114 0.0388528 0.2)
(-0.0105734 0.0385772 0.2)
(-0.0116278 0.0382726 0.2)
(-0.0126734 0.0379392 0.2)
(-0.0137094 0.0375773 0.2)
(-0.0147352 0.037187 0.2)
(-0.0157498 0.0367688 0.2)
(-0.0167526 0.0363229 0.2)
(-0.0177428 0.0358496 0.2)
(-0.0187196 0.0353493 0.2)
(-0.0196823 0.0348225 0.2)
(-0.0206303 0.0342694 0.2)
(-0.0215626 0.0336905 0.2)
(-0.0224788 0.0330863 0.2)
(-0.023378 0.0324572 0.2)
(-0.0242597 0.0318036 0.2)
(-0.025123 0.0311261 0.2)
(-0.0259675 0.0304251 0.2)
(-0.0267924 0.0297013 0.2)
(-0.0275971 0.0289551 0.2)
(-0.0283811 0.0281871 0.2)
(-0.0291437 0.0273979 0.2)
(-0.0298844 0.026588 0.2)
(-0.0306026 0.0257582 0.2)
(-0.0312977 0.0249089 0.2)
(-0.0319693 0.0240409 0.2)
(-0.0326168 0.0231548 0.2)
(-0.0332397 0.0222513 0.2)
(-0.0338377 0.021331 0.2)
(-0.0344101 0.0203947 0.2)
(-0.0349567 0.019443 0.2)
(-0.0354769 0.0184767 0.2)
(-0.0359705 0.0174965 0.2)
(-0.0364369 0.0165031 0.2)
(-0.0368759 0.0154973 0.2)
(-0.0372872 0.0144798 0.2)
(-0.0376704 0.0134514 0.2)
(-0.0380253 0.0124129 0.2)
(-0.0383515 0.011365 0.2)
(-0.0386488 0.0103086 0.2)
(-0.0389171 0.00924441 0.2)
(-0.0391561 0.00817328 0.2)
(-0.0393656 0.00709599 0.2)
(-0.0395454 0.00601336 0.2)
(-0.0396955 0.00492621 0.2)
(-0.0398157 0.00383535 0.2)
(-0.0399059 0.0027416 0.2)
(-0.0399661 0.00164578 0.2)
(-0.0399962 0.000548733 0.2)
(-0.0399962 -0.000548733 0.2)
(-0.0399661 -0.00164578 0.2)
(-0.0399059 -0.0027416 0.2)
(-0.0398157 -0.00383535 0.2)
(-0.0396955 -0.00492621 0.2)
(-0.0395454 -0.00601336 0.2)
(-0.0393656 -0.00709599 0.2)
(-0.0391561 -0.00817328 0.2)
(-0.0389171 -0.00924441 0.2)
(-0.0386488 -0.0103086 0.2)
(-0.0383515 -0.011365 0.2)
(-0.0380253 -0.0124129 0.2)
(-0.0376704 -0.0134514 0.2)
(-0.0372872 -0.0144798 0.2)
(-0.0368759 -0.0154973 0.2)
(-0.0364369 -0.0165031 0.2)
(-0.0359705 -0.0174965 0.2)
(-0.0354769 -0.0184767 0.2)
(-0.0349567 -0.019443 0.2)
(-0.0344101 -0.0203947 0.2)
(-0.0338377 -0.021331 0.2)
(-0.0332397 -0.0222513 0.2)
(-0.0326168 -0.0231548 0.2)
(-0.0319693 -0.0240409 0.2)
(-0.0312977 -0.0249089 0.2)
(-0.0306026 -0.0257582 0.2)
(-0.0298844 -0.026588 0.2)
(-0.0291437 -0.0273979 0.2)
(-0.0283811 -0.0281871 0.2)
(-0.0275971 -0.0289551 0.2)
(-0.0267924 -0.0297013 0.2)
(-0.0259675 -0.0304251 0.2)
(-0.025123 -0.0311261 0.2)
(-0.0242597 -0.0318036 0.2)
(-0.023378 -0.0324572 0.2)
(-0.0224788 -0.0330863 0.2)
(-0.0215626 -0.0336905 0.2)
(-0.0206303 -0.0342694 0.2)
(-0.0196823 -0.0348225 0.2)
(-0.0187196 -0.0353493 0.2)
(-0.0177428 -0.0358496 0.2)
(-0.0167526 -0.0363229 0.2)
(-0.0157498 -0.0367688 0.2)
(-0.0147352 -0.037187 0.2)
(-0.0137094 -0.0375773 0.2)
(-0.0126734 -0.0379392 0.2)
(-0.0116278 -0.0382726 0.2)